Info: SIMULATION PARAMETERS:
Info: TIMESTEP               2
Info: NUMBER OF STEPS        0
Info: STEPS PER CYCLE        10
Info: PERIODIC CELL BASIS 1  83.008 0 0
Info: PERIODIC CELL BASIS 2  0 63.4218 0
Info: PERIODIC CELL BASIS 3  0 0 70.8832
Info: PERIODIC CELL CENTER   -2 -0.4 -0.6
Info: WRAPPING ALL CLUSTERS AROUND PERIODIC BOUNDARIES ON OUTPUT.
Info: FIRST LDB TIMESTEP     50
Info: LAST LDB TIMESTEP     -1
Info: HOM BACKGROUND SCALING 1
Info: PME BACKGROUND SCALING 1
Info: MIN ATOMS PER PATCH    40
Info: INITIAL TEMPERATURE    298
Info: CENTER OF MASS MOVING INITIALLY? NO
Info: DIELECTRIC             1
Info: EXCLUDE                SCALED ONE-FOUR
Info: 1-4 ELECTROSTATICS SCALED BY 1
Info: MODIFIED 1-4 VDW PARAMETERS WILL BE USED
Info: DCD FILENAME           milestone_equilibration.dcd
Info: DCD FREQUENCY          1000
Info: DCD FIRST STEP         1000
Info: DCD FILE WILL CONTAIN UNIT CELL DATA
Info: XST FILENAME           milestone_equilibration.xst
Info: XST FREQUENCY          250
Info: NO VELOCITY DCD OUTPUT
Info: NO FORCE DCD OUTPUT
Info: OUTPUT FILENAME        milestone_equilibration
Info: BINARY OUTPUT FILES WILL BE USED
Info: RESTART FILENAME       milestone_equilibration.restart
Info: RESTART FREQUENCY      500
Info: BINARY RESTART FILES WILL BE USED
Info: SWITCHING ACTIVE
Info: SWITCHING ON           10
Info: SWITCHING OFF          12
Info: PAIRLIST DISTANCE      14
Info: PAIRLIST SHRINK RATE   0.01
Info: PAIRLIST GROW RATE     0.01
Info: PAIRLIST TRIGGER       0.3
Info: PAIRLISTS PER CYCLE    2
Info: PAIRLISTS ENABLED
Info: MARGIN                 0.495
Info: HYDROGEN GROUP CUTOFF  2.5
Info: PATCH DIMENSION        16.995
Info: ENERGY OUTPUT STEPS    1000
Info: CROSSTERM ENERGY INCLUDED IN DIHEDRAL
Info: TIMING OUTPUT STEPS    10000
Info: PRESSURE OUTPUT STEPS  1000
Info: COLLECTIVE VARIABLES CALCULATION REQUESTED
Info: COLLECTIVE VARIABLES CONFIGURATION   colvars.in
Info: LANGEVIN DYNAMICS ACTIVE
Info: LANGEVIN TEMPERATURE   298
Info: LANGEVIN USING BBK INTEGRATOR
Info: LANGEVIN DAMPING COEFFICIENT IS 1 INVERSE PS
Info: LANGEVIN DYNAMICS NOT APPLIED TO HYDROGENS
Info: LANGEVIN PISTON PRESSURE CONTROL ACTIVE
Info:        TARGET PRESSURE IS 1.01325 BAR
Info:     OSCILLATION PERIOD IS 100 FS
Info:             DECAY TIME IS 50 FS
Info:     PISTON TEMPERATURE IS 298 K
Info:       PRESSURE CONTROL IS GROUP-BASED
Info:    INITIAL STRAIN RATE IS -1.69062e-05 -1.69062e-05 -1.69062e-05
Info:       CELL FLUCTUATION IS ISOTROPIC
Info: PARTICLE MESH EWALD (PME) ACTIVE
Info: PME TOLERANCE               1e-06
Info: PME EWALD COEFFICIENT       0.257952
Info: PME INTERPOLATION ORDER     4
Info: PME GRID DIMENSIONS         84 64 72
Info: PME MAXIMUM GRID SPACING    1
Info: FULL ELECTROSTATIC EVALUATION FREQUENCY      2
Info: USING VERLET I (r-RESPA) MTS SCHEME.
Info: C1 SPLITTING OF LONG RANGE ELECTROSTATICS
Info: PLACING ATOMS IN PATCHES BY HYDROGEN GROUPS
Info: RIGID BONDS TO HYDROGEN : ALL
Info:         ERROR TOLERANCE : 1e-08
Info:          MAX ITERATIONS : 100
Info: RIGID WATER USING SETTLE ALGORITHM
Info: RANDOM NUMBER SEED     1589609774
Info: USE HYDROGEN BONDS?    NO
Info: COORDINATE PDB         FKBP_BUT_r=28A.pdb
Info: STRUCTURE FILE         ionized.psf
Info: PARAMETER file: CHARMM format!
Info: PARAMETERS             par_all36m_prot.prm
Info: PARAMETERS             par_all36_cgenff.prm
Info: PARAMETERS             par_all36_carb.prm
Info: PARAMETERS             par_all36_lipid.prm
Info: PARAMETERS             par_all36_na.prm
Info: PARAMETERS             buq.prm
Info: PARAMETERS             toppar_water_ions_namd.str
Info: USING ARITHMETIC MEAN TO COMBINE L-J SIGMA PARAMETERS
Info: SKIPPING rtf SECTION IN STREAM FILE
Info: SUMMARY OF PARAMETERS:
Info: 973 BONDS
Info: 2864 ANGLES
Info: 7012 DIHEDRAL
Info: 199 IMPROPER
Info: 6 CROSSTERM
Info: 357 VDW
Info: 78 VDW_PAIRS
Info: 0 NBTHOLE_PAIRS
Info: STRUCTURE SUMMARY:
Info: 38134 ATOMS
Info: 25999 BONDS
Info: 15223 ANGLES
Info: 4490 DIHEDRALS
Info: 287 IMPROPERS
Info: 105 CROSSTERMS
Info: 0 EXCLUSIONS
Info: 37295 RIGID BONDS
Info: 77107 DEGREES OF FREEDOM
Info: 12991 HYDROGEN GROUPS
Info: 4 ATOMS IN LARGEST HYDROGEN GROUP
Info: 12991 MIGRATION GROUPS
Info: 4 ATOMS IN LARGEST MIGRATION GROUP
Info: TOTAL MASS = 230867 amu
Info: TOTAL CHARGE = 1.36904e-06 e
Info: MASS DENSITY = 1.02735 g/cm^3
Info: ATOM DENSITY = 0.10219 atoms/A^3
Info: ADDED 45630 IMPLICIT EXCLUSIONS
Info: NONBONDED TABLE R-SQUARED SPACING: 0.0625
Info: NONBONDED TABLE SIZE: 769 POINTS
Info: REMOVING COM VELOCITY 0.00610379 -0.0140127 -0.0403119
Info: Updated CUDA force table with 4096 elements.
Info: Updated CUDA LJ table with 357 x 357 elements.
Info: Updated CUDA force table with 4096 elements.
Info: Updated CUDA LJ table with 357 x 357 elements.
Info: Found 267 unique exclusion lists needing 792 bytes
Info: Found 267 unique exclusion lists needing 792 bytes
TCL: Running for 50000 steps
ETITLE: TS BOND ANGLE DIHED IMPRP ELECT VDW BOUNDARY MISC KINETIC TOTAL TEMP POTENTIAL TOTAL3 TEMPAVG PRESSURE GPRESSURE VOLUME PRESSAVG GPRESSAVG
ENERGY: 0 344.4316 979.2130 987.6672 56.3956 -135940.2312 11801.1612 0.0000 1.0614 22801.2288 -98969.0726 297.6150 -121770.3014 -98910.2953 297.6150 -267.9051 -236.2177 373166.0015 -267.9051 -236.2177
ENERGY: 10000 351.0602 943.1867 1005.2983 55.1651 -136348.5143 12322.1700 0.0000 0.4096 22709.4033 -98961.8212 296.4164 -121671.2245 -98902.3563 296.5103 -125.1917 -90.1470 375735.2159 -3.1607 -3.2286
ENERGY: 20000 324.3866 974.0586 994.1128 71.7530 -136225.2918 12179.6513 0.0000 1.3278 22631.9547 -99048.0469 295.4055 -121680.0016 -98991.2311 296.9486 -31.7962 3.3603 373192.8160 3.2222 3.2837
ENERGY: 30000 333.2221 927.2762 999.4200 62.3084 -136239.3240 12253.5666 0.0000 0.6504 22717.5505 -98945.3298 296.5228 -121662.8804 -98889.3937 297.2992 46.2566 80.5530 374230.4616 0.8736 0.9069
ENERGY: 40000 338.9251 963.6949 983.5232 57.6218 -135874.0814 12069.2295 0.0000 1.0354 22777.0003 -98683.0513 297.2988 -121460.0516 -98622.6762 298.2486 -131.7599 -99.2707 374417.4174 0.2530 0.2842
ENERGY: 50000 325.0660 960.1267 994.5871 61.1403 -136019.7017 12059.9657 0.0000 0.9190 22776.1143 -98841.7826 297.2872 -121617.8969 -98784.7420 296.9336 -160.3486 -131.5696 374635.0515 8.3909 8.3343
