Info: SIMULATION PARAMETERS:
Info: TIMESTEP               2
Info: NUMBER OF STEPS        0
Info: STEPS PER CYCLE        10
Info: PERIODIC CELL BASIS 1  83.008 0 0
Info: PERIODIC CELL BASIS 2  0 63.4218 0
Info: PERIODIC CELL BASIS 3  0 0 70.8832
Info: PERIODIC CELL CENTER   -2 -0.4 -0.6
Info: WRAPPING ALL CLUSTERS AROUND PERIODIC BOUNDARIES ON OUTPUT.
Info: FIRST LDB TIMESTEP     50
Info: LAST LDB TIMESTEP     -1
Info: HOM BACKGROUND SCALING 1
Info: PME BACKGROUND SCALING 1
Info: MIN ATOMS PER PATCH    40
Info: INITIAL TEMPERATURE    298
Info: CENTER OF MASS MOVING INITIALLY? NO
Info: DIELECTRIC             1
Info: EXCLUDE                SCALED ONE-FOUR
Info: 1-4 ELECTROSTATICS SCALED BY 1
Info: MODIFIED 1-4 VDW PARAMETERS WILL BE USED
Info: DCD FILENAME           milestone_equilibration.dcd
Info: DCD FREQUENCY          1000
Info: DCD FIRST STEP         1000
Info: DCD FILE WILL CONTAIN UNIT CELL DATA
Info: XST FILENAME           milestone_equilibration.xst
Info: XST FREQUENCY          250
Info: NO VELOCITY DCD OUTPUT
Info: NO FORCE DCD OUTPUT
Info: OUTPUT FILENAME        milestone_equilibration
Info: BINARY OUTPUT FILES WILL BE USED
Info: RESTART FILENAME       milestone_equilibration.restart
Info: RESTART FREQUENCY      500
Info: BINARY RESTART FILES WILL BE USED
Info: SWITCHING ACTIVE
Info: SWITCHING ON           10
Info: SWITCHING OFF          12
Info: PAIRLIST DISTANCE      14
Info: PAIRLIST SHRINK RATE   0.01
Info: PAIRLIST GROW RATE     0.01
Info: PAIRLIST TRIGGER       0.3
Info: PAIRLISTS PER CYCLE    2
Info: PAIRLISTS ENABLED
Info: MARGIN                 0.495
Info: HYDROGEN GROUP CUTOFF  2.5
Info: PATCH DIMENSION        16.995
Info: ENERGY OUTPUT STEPS    1000
Info: CROSSTERM ENERGY INCLUDED IN DIHEDRAL
Info: TIMING OUTPUT STEPS    10000
Info: PRESSURE OUTPUT STEPS  1000
Info: COLLECTIVE VARIABLES CALCULATION REQUESTED
Info: COLLECTIVE VARIABLES CONFIGURATION   colvars.in
Info: LANGEVIN DYNAMICS ACTIVE
Info: LANGEVIN TEMPERATURE   298
Info: LANGEVIN USING BBK INTEGRATOR
Info: LANGEVIN DAMPING COEFFICIENT IS 1 INVERSE PS
Info: LANGEVIN DYNAMICS NOT APPLIED TO HYDROGENS
Info: LANGEVIN PISTON PRESSURE CONTROL ACTIVE
Info:        TARGET PRESSURE IS 1.01325 BAR
Info:     OSCILLATION PERIOD IS 100 FS
Info:             DECAY TIME IS 50 FS
Info:     PISTON TEMPERATURE IS 298 K
Info:       PRESSURE CONTROL IS GROUP-BASED
Info:    INITIAL STRAIN RATE IS -1.69062e-05 -1.69062e-05 -1.69062e-05
Info:       CELL FLUCTUATION IS ISOTROPIC
Info: PARTICLE MESH EWALD (PME) ACTIVE
Info: PME TOLERANCE               1e-06
Info: PME EWALD COEFFICIENT       0.257952
Info: PME INTERPOLATION ORDER     4
Info: PME GRID DIMENSIONS         84 64 72
Info: PME MAXIMUM GRID SPACING    1
Info: FULL ELECTROSTATIC EVALUATION FREQUENCY      2
Info: USING VERLET I (r-RESPA) MTS SCHEME.
Info: C1 SPLITTING OF LONG RANGE ELECTROSTATICS
Info: PLACING ATOMS IN PATCHES BY HYDROGEN GROUPS
Info: RIGID BONDS TO HYDROGEN : ALL
Info:         ERROR TOLERANCE : 1e-08
Info:          MAX ITERATIONS : 100
Info: RIGID WATER USING SETTLE ALGORITHM
Info: RANDOM NUMBER SEED     1590112554
Info: USE HYDROGEN BONDS?    NO
Info: COORDINATE PDB         FKBP_BUT_r=6A.pdb
Info: STRUCTURE FILE         ionized.psf
Info: PARAMETER file: CHARMM format!
Info: PARAMETERS             par_all36m_prot.prm
Info: PARAMETERS             par_all36_cgenff.prm
Info: PARAMETERS             par_all36_carb.prm
Info: PARAMETERS             par_all36_lipid.prm
Info: PARAMETERS             par_all36_na.prm
Info: PARAMETERS             buq.prm
Info: PARAMETERS             toppar_water_ions_namd.str
Info: USING ARITHMETIC MEAN TO COMBINE L-J SIGMA PARAMETERS
Info: SKIPPING rtf SECTION IN STREAM FILE
Info: SUMMARY OF PARAMETERS:
Info: 973 BONDS
Info: 2864 ANGLES
Info: 7012 DIHEDRAL
Info: 199 IMPROPER
Info: 6 CROSSTERM
Info: 357 VDW
Info: 78 VDW_PAIRS
Info: 0 NBTHOLE_PAIRS
Info: STRUCTURE SUMMARY:
Info: 38134 ATOMS
Info: 25999 BONDS
Info: 15223 ANGLES
Info: 4490 DIHEDRALS
Info: 287 IMPROPERS
Info: 105 CROSSTERMS
Info: 0 EXCLUSIONS
Info: 37295 RIGID BONDS
Info: 77107 DEGREES OF FREEDOM
Info: 12991 HYDROGEN GROUPS
Info: 4 ATOMS IN LARGEST HYDROGEN GROUP
Info: 12991 MIGRATION GROUPS
Info: 4 ATOMS IN LARGEST MIGRATION GROUP
Info: TOTAL MASS = 230867 amu
Info: TOTAL CHARGE = 1.36904e-06 e
Info: MASS DENSITY = 1.02735 g/cm^3
Info: ATOM DENSITY = 0.10219 atoms/A^3
Info: ADDED 45630 IMPLICIT EXCLUSIONS
Info: NONBONDED TABLE R-SQUARED SPACING: 0.0625
Info: NONBONDED TABLE SIZE: 769 POINTS
Info: REMOVING COM VELOCITY -0.0193327 0.0119174 -0.00475251
Info: Updated CUDA force table with 4096 elements.
Info: Updated CUDA LJ table with 357 x 357 elements.
Info: Updated CUDA force table with 4096 elements.
Info: Updated CUDA LJ table with 357 x 357 elements.
Info: Found 267 unique exclusion lists needing 792 bytes
Info: Found 267 unique exclusion lists needing 792 bytes
TCL: Running for 50000 steps
ETITLE: TS BOND ANGLE DIHED IMPRP ELECT VDW BOUNDARY MISC KINETIC TOTAL TEMP POTENTIAL TOTAL3 TEMPAVG PRESSURE GPRESSURE VOLUME PRESSAVG GPRESSAVG
ENERGY: 0 337.2764 967.9921 994.3122 52.0036 -136513.9933 12556.9551 0.0000 0.6276 22721.8414 -98882.9849 296.5788 -121604.8263 -98823.9539 296.5788 327.8059 362.6088 373166.0015 327.8059 362.6088
ENERGY: 10000 335.5797 920.2361 980.8317 56.7813 -136152.9823 12215.7019 0.0000 2.3827 22921.6062 -98719.8626 299.1862 -121641.4688 -98662.1085 298.1075 38.6194 68.5871 374617.6437 3.1989 3.1943
ENERGY: 20000 316.7094 934.4309 990.6441 51.3191 -136389.6814 12397.6945 0.0000 2.7354 22697.4468 -98998.7012 296.2604 -121696.1479 -98940.9735 296.5967 126.4955 161.4902 373752.2960 -1.3721 -1.4288
ENERGY: 30000 353.4008 914.2132 997.8273 49.9667 -136786.4890 12569.8859 0.0000 2.6231 22597.6433 -99300.9286 294.9577 -121898.5720 -99239.8614 296.1252 200.1844 228.6317 373696.6833 2.9210 2.9744
ENERGY: 40000 361.4716 938.2360 1004.8297 66.8031 -136713.6972 12597.8922 0.0000 3.2224 22738.4492 -99002.7929 296.7956 -121741.2422 -98946.0857 296.1044 323.5701 357.6070 374348.7189 -5.2990 -5.3878
ENERGY: 50000 326.9604 951.6998 982.3030 50.5557 -136340.2429 12113.2543 0.0000 1.6950 22648.0668 -99265.7079 295.6158 -121913.7747 -99212.8718 296.6637 -241.9782 -211.1171 374693.0440 -3.7758 -3.8937
