Info: SIMULATION PARAMETERS:
Info: TIMESTEP               2
Info: NUMBER OF STEPS        0
Info: STEPS PER CYCLE        10
Info: PERIODIC CELL BASIS 1  83.008 0 0
Info: PERIODIC CELL BASIS 2  0 63.4218 0
Info: PERIODIC CELL BASIS 3  0 0 70.8832
Info: PERIODIC CELL CENTER   -2 -0.4 -0.6
Info: WRAPPING ALL CLUSTERS AROUND PERIODIC BOUNDARIES ON OUTPUT.
Info: FIRST LDB TIMESTEP     50
Info: LAST LDB TIMESTEP     -1
Info: HOM BACKGROUND SCALING 1
Info: PME BACKGROUND SCALING 1
Info: MIN ATOMS PER PATCH    40
Info: INITIAL TEMPERATURE    298
Info: CENTER OF MASS MOVING INITIALLY? NO
Info: DIELECTRIC             1
Info: EXCLUDE                SCALED ONE-FOUR
Info: 1-4 ELECTROSTATICS SCALED BY 1
Info: MODIFIED 1-4 VDW PARAMETERS WILL BE USED
Info: DCD FILENAME           milestone_equilibration.dcd
Info: DCD FREQUENCY          1000
Info: DCD FIRST STEP         1000
Info: DCD FILE WILL CONTAIN UNIT CELL DATA
Info: XST FILENAME           milestone_equilibration.xst
Info: XST FREQUENCY          250
Info: NO VELOCITY DCD OUTPUT
Info: NO FORCE DCD OUTPUT
Info: OUTPUT FILENAME        milestone_equilibration
Info: BINARY OUTPUT FILES WILL BE USED
Info: RESTART FILENAME       milestone_equilibration.restart
Info: RESTART FREQUENCY      500
Info: BINARY RESTART FILES WILL BE USED
Info: SWITCHING ACTIVE
Info: SWITCHING ON           10
Info: SWITCHING OFF          12
Info: PAIRLIST DISTANCE      14
Info: PAIRLIST SHRINK RATE   0.01
Info: PAIRLIST GROW RATE     0.01
Info: PAIRLIST TRIGGER       0.3
Info: PAIRLISTS PER CYCLE    2
Info: PAIRLISTS ENABLED
Info: MARGIN                 0.495
Info: HYDROGEN GROUP CUTOFF  2.5
Info: PATCH DIMENSION        16.995
Info: ENERGY OUTPUT STEPS    1000
Info: CROSSTERM ENERGY INCLUDED IN DIHEDRAL
Info: TIMING OUTPUT STEPS    10000
Info: PRESSURE OUTPUT STEPS  1000
Info: COLLECTIVE VARIABLES CALCULATION REQUESTED
Info: COLLECTIVE VARIABLES CONFIGURATION   colvars.in
Info: LANGEVIN DYNAMICS ACTIVE
Info: LANGEVIN TEMPERATURE   298
Info: LANGEVIN USING BBK INTEGRATOR
Info: LANGEVIN DAMPING COEFFICIENT IS 1 INVERSE PS
Info: LANGEVIN DYNAMICS NOT APPLIED TO HYDROGENS
Info: LANGEVIN PISTON PRESSURE CONTROL ACTIVE
Info:        TARGET PRESSURE IS 1.01325 BAR
Info:     OSCILLATION PERIOD IS 100 FS
Info:             DECAY TIME IS 50 FS
Info:     PISTON TEMPERATURE IS 298 K
Info:       PRESSURE CONTROL IS GROUP-BASED
Info:    INITIAL STRAIN RATE IS -1.69062e-05 -1.69062e-05 -1.69062e-05
Info:       CELL FLUCTUATION IS ISOTROPIC
Info: PARTICLE MESH EWALD (PME) ACTIVE
Info: PME TOLERANCE               1e-06
Info: PME EWALD COEFFICIENT       0.257952
Info: PME INTERPOLATION ORDER     4
Info: PME GRID DIMENSIONS         84 64 72
Info: PME MAXIMUM GRID SPACING    1
Info: FULL ELECTROSTATIC EVALUATION FREQUENCY      2
Info: USING VERLET I (r-RESPA) MTS SCHEME.
Info: C1 SPLITTING OF LONG RANGE ELECTROSTATICS
Info: PLACING ATOMS IN PATCHES BY HYDROGEN GROUPS
Info: RIGID BONDS TO HYDROGEN : ALL
Info:         ERROR TOLERANCE : 1e-08
Info:          MAX ITERATIONS : 100
Info: RIGID WATER USING SETTLE ALGORITHM
Info: RANDOM NUMBER SEED     1589879429
Info: USE HYDROGEN BONDS?    NO
Info: COORDINATE PDB         FKBP_BUT_r=6A.pdb
Info: STRUCTURE FILE         ionized.psf
Info: PARAMETER file: CHARMM format!
Info: PARAMETERS             par_all36m_prot.prm
Info: PARAMETERS             par_all36_cgenff.prm
Info: PARAMETERS             par_all36_carb.prm
Info: PARAMETERS             par_all36_lipid.prm
Info: PARAMETERS             par_all36_na.prm
Info: PARAMETERS             buq.prm
Info: PARAMETERS             toppar_water_ions_namd.str
Info: USING ARITHMETIC MEAN TO COMBINE L-J SIGMA PARAMETERS
Info: SKIPPING rtf SECTION IN STREAM FILE
Info: SUMMARY OF PARAMETERS:
Info: 973 BONDS
Info: 2864 ANGLES
Info: 7012 DIHEDRAL
Info: 199 IMPROPER
Info: 6 CROSSTERM
Info: 357 VDW
Info: 78 VDW_PAIRS
Info: 0 NBTHOLE_PAIRS
Info: STRUCTURE SUMMARY:
Info: 38134 ATOMS
Info: 25999 BONDS
Info: 15223 ANGLES
Info: 4490 DIHEDRALS
Info: 287 IMPROPERS
Info: 105 CROSSTERMS
Info: 0 EXCLUSIONS
Info: 37295 RIGID BONDS
Info: 77107 DEGREES OF FREEDOM
Info: 12991 HYDROGEN GROUPS
Info: 4 ATOMS IN LARGEST HYDROGEN GROUP
Info: 12991 MIGRATION GROUPS
Info: 4 ATOMS IN LARGEST MIGRATION GROUP
Info: TOTAL MASS = 230867 amu
Info: TOTAL CHARGE = 1.36904e-06 e
Info: MASS DENSITY = 1.02735 g/cm^3
Info: ATOM DENSITY = 0.10219 atoms/A^3
Info: ADDED 45630 IMPLICIT EXCLUSIONS
Info: NONBONDED TABLE R-SQUARED SPACING: 0.0625
Info: NONBONDED TABLE SIZE: 769 POINTS
Info: REMOVING COM VELOCITY -0.0273096 -0.0364402 0.0117466
Info: Updated CUDA force table with 4096 elements.
Info: Updated CUDA LJ table with 357 x 357 elements.
Info: Updated CUDA force table with 4096 elements.
Info: Updated CUDA LJ table with 357 x 357 elements.
Info: Found 267 unique exclusion lists needing 792 bytes
Info: Found 267 unique exclusion lists needing 792 bytes
TCL: Running for 50000 steps
ETITLE: TS BOND ANGLE DIHED IMPRP ELECT VDW BOUNDARY MISC KINETIC TOTAL TEMP POTENTIAL TOTAL3 TEMPAVG PRESSURE GPRESSURE VOLUME PRESSAVG GPRESSAVG
ENERGY: 0 337.2764 967.9921 994.3122 52.0036 -136513.9933 12556.9551 0.0000 0.6276 22779.2253 -98825.6010 297.3278 -121604.8263 -98766.6175 297.3278 337.1875 372.0383 373166.0015 337.1875 372.0383
ENERGY: 10000 325.4141 928.1795 977.9983 56.0332 -136053.4380 12141.6177 0.0000 1.7617 22661.9866 -98960.4470 295.7975 -121622.4336 -98898.5801 297.3110 -109.0824 -76.9369 374793.2379 3.3974 3.4934
ENERGY: 20000 339.1433 910.9084 995.3839 50.1881 -136378.5854 12353.1767 0.0000 2.9579 22785.9470 -98940.8799 297.4155 -121726.8269 -98880.3757 297.4981 112.3003 141.7580 372601.0924 1.6473 1.7272
ENERGY: 30000 379.5158 928.5195 1015.3555 64.6700 -136504.1488 12336.2220 0.0000 2.3792 22747.7556 -99029.7311 296.9170 -121777.4868 -98972.4896 296.7921 -45.5243 -14.6874 374467.2706 -4.4064 -4.5068
ENERGY: 40000 314.8346 957.7336 985.4786 55.0923 -136510.7169 12418.3587 0.0000 1.2956 22764.5595 -99013.3641 297.1364 -121777.9236 -98960.7899 297.0007 102.8607 136.4212 374542.6917 2.2598 2.2542
ENERGY: 50000 340.8845 907.8489 998.1157 54.7897 -136222.2318 12202.4298 0.0000 1.0196 22738.0352 -98979.1085 296.7902 -121717.1436 -98916.4128 297.2245 -34.3470 0.6236 373645.5242 4.8397 4.9035
