Info: SIMULATION PARAMETERS:
Info: TIMESTEP               2
Info: NUMBER OF STEPS        0
Info: STEPS PER CYCLE        10
Info: PERIODIC CELL BASIS 1  83.008 0 0
Info: PERIODIC CELL BASIS 2  0 63.4218 0
Info: PERIODIC CELL BASIS 3  0 0 70.8832
Info: PERIODIC CELL CENTER   -2 -0.4 -0.6
Info: WRAPPING ALL CLUSTERS AROUND PERIODIC BOUNDARIES ON OUTPUT.
Info: FIRST LDB TIMESTEP     50
Info: LAST LDB TIMESTEP     -1
Info: HOM BACKGROUND SCALING 1
Info: PME BACKGROUND SCALING 1
Info: MIN ATOMS PER PATCH    40
Info: INITIAL TEMPERATURE    298
Info: CENTER OF MASS MOVING INITIALLY? NO
Info: DIELECTRIC             1
Info: EXCLUDE                SCALED ONE-FOUR
Info: 1-4 ELECTROSTATICS SCALED BY 1
Info: MODIFIED 1-4 VDW PARAMETERS WILL BE USED
Info: DCD FILENAME           milestone_equilibration.dcd
Info: DCD FREQUENCY          1000
Info: DCD FIRST STEP         1000
Info: DCD FILE WILL CONTAIN UNIT CELL DATA
Info: XST FILENAME           milestone_equilibration.xst
Info: XST FREQUENCY          250
Info: NO VELOCITY DCD OUTPUT
Info: NO FORCE DCD OUTPUT
Info: OUTPUT FILENAME        milestone_equilibration
Info: BINARY OUTPUT FILES WILL BE USED
Info: RESTART FILENAME       milestone_equilibration.restart
Info: RESTART FREQUENCY      500
Info: BINARY RESTART FILES WILL BE USED
Info: SWITCHING ACTIVE
Info: SWITCHING ON           10
Info: SWITCHING OFF          12
Info: PAIRLIST DISTANCE      14
Info: PAIRLIST SHRINK RATE   0.01
Info: PAIRLIST GROW RATE     0.01
Info: PAIRLIST TRIGGER       0.3
Info: PAIRLISTS PER CYCLE    2
Info: PAIRLISTS ENABLED
Info: MARGIN                 0.495
Info: HYDROGEN GROUP CUTOFF  2.5
Info: PATCH DIMENSION        16.995
Info: ENERGY OUTPUT STEPS    1000
Info: CROSSTERM ENERGY INCLUDED IN DIHEDRAL
Info: TIMING OUTPUT STEPS    10000
Info: PRESSURE OUTPUT STEPS  1000
Info: COLLECTIVE VARIABLES CALCULATION REQUESTED
Info: COLLECTIVE VARIABLES CONFIGURATION   colvars.in
Info: LANGEVIN DYNAMICS ACTIVE
Info: LANGEVIN TEMPERATURE   298
Info: LANGEVIN USING BBK INTEGRATOR
Info: LANGEVIN DAMPING COEFFICIENT IS 1 INVERSE PS
Info: LANGEVIN DYNAMICS NOT APPLIED TO HYDROGENS
Info: LANGEVIN PISTON PRESSURE CONTROL ACTIVE
Info:        TARGET PRESSURE IS 1.01325 BAR
Info:     OSCILLATION PERIOD IS 100 FS
Info:             DECAY TIME IS 50 FS
Info:     PISTON TEMPERATURE IS 298 K
Info:       PRESSURE CONTROL IS GROUP-BASED
Info:    INITIAL STRAIN RATE IS -1.69062e-05 -1.69062e-05 -1.69062e-05
Info:       CELL FLUCTUATION IS ISOTROPIC
Info: PARTICLE MESH EWALD (PME) ACTIVE
Info: PME TOLERANCE               1e-06
Info: PME EWALD COEFFICIENT       0.257952
Info: PME INTERPOLATION ORDER     4
Info: PME GRID DIMENSIONS         84 64 72
Info: PME MAXIMUM GRID SPACING    1
Info: FULL ELECTROSTATIC EVALUATION FREQUENCY      2
Info: USING VERLET I (r-RESPA) MTS SCHEME.
Info: C1 SPLITTING OF LONG RANGE ELECTROSTATICS
Info: PLACING ATOMS IN PATCHES BY HYDROGEN GROUPS
Info: RIGID BONDS TO HYDROGEN : ALL
Info:         ERROR TOLERANCE : 1e-08
Info:          MAX ITERATIONS : 100
Info: RIGID WATER USING SETTLE ALGORITHM
Info: RANDOM NUMBER SEED     1590463223
Info: USE HYDROGEN BONDS?    NO
Info: COORDINATE PDB         FKBP_BUT_r=8A.pdb
Info: STRUCTURE FILE         ionized.psf
Info: PARAMETER file: CHARMM format!
Info: PARAMETERS             par_all36m_prot.prm
Info: PARAMETERS             par_all36_cgenff.prm
Info: PARAMETERS             par_all36_carb.prm
Info: PARAMETERS             par_all36_lipid.prm
Info: PARAMETERS             par_all36_na.prm
Info: PARAMETERS             buq.prm
Info: PARAMETERS             toppar_water_ions_namd.str
Info: USING ARITHMETIC MEAN TO COMBINE L-J SIGMA PARAMETERS
Info: SKIPPING rtf SECTION IN STREAM FILE
Info: SUMMARY OF PARAMETERS:
Info: 973 BONDS
Info: 2864 ANGLES
Info: 7012 DIHEDRAL
Info: 199 IMPROPER
Info: 6 CROSSTERM
Info: 357 VDW
Info: 78 VDW_PAIRS
Info: 0 NBTHOLE_PAIRS
Info: STRUCTURE SUMMARY:
Info: 38134 ATOMS
Info: 25999 BONDS
Info: 15223 ANGLES
Info: 4490 DIHEDRALS
Info: 287 IMPROPERS
Info: 105 CROSSTERMS
Info: 0 EXCLUSIONS
Info: 37295 RIGID BONDS
Info: 77107 DEGREES OF FREEDOM
Info: 12991 HYDROGEN GROUPS
Info: 4 ATOMS IN LARGEST HYDROGEN GROUP
Info: 12991 MIGRATION GROUPS
Info: 4 ATOMS IN LARGEST MIGRATION GROUP
Info: TOTAL MASS = 230867 amu
Info: TOTAL CHARGE = 1.36904e-06 e
Info: MASS DENSITY = 1.02735 g/cm^3
Info: ATOM DENSITY = 0.10219 atoms/A^3
Info: ADDED 45630 IMPLICIT EXCLUSIONS
Info: NONBONDED TABLE R-SQUARED SPACING: 0.0625
Info: NONBONDED TABLE SIZE: 769 POINTS
Info: REMOVING COM VELOCITY 0.0329636 0.0146196 -0.0479212
Info: Updated CUDA force table with 4096 elements.
Info: Updated CUDA LJ table with 357 x 357 elements.
Info: Updated CUDA force table with 4096 elements.
Info: Updated CUDA LJ table with 357 x 357 elements.
Info: Found 267 unique exclusion lists needing 792 bytes
Info: Found 267 unique exclusion lists needing 792 bytes
TCL: Running for 50000 steps
ETITLE: TS BOND ANGLE DIHED IMPRP ELECT VDW BOUNDARY MISC KINETIC TOTAL TEMP POTENTIAL TOTAL3 TEMPAVG PRESSURE GPRESSURE VOLUME PRESSAVG GPRESSAVG
ENERGY: 0 329.2233 986.9490 1008.0685 51.3300 -136596.8625 12386.7070 0.0000 0.9168 22952.3223 -98881.3455 299.5872 -121833.6678 -98822.4396 299.5872 44.3516 71.4927 373166.0015 44.3516 71.4927
ENERGY: 10000 356.0037 910.3220 1002.8639 53.0996 -136032.0294 12126.9371 0.0000 1.6419 22701.9202 -98879.2410 296.3188 -121581.1612 -98824.7744 297.7764 -14.7906 18.1679 373567.8939 -0.2231 -0.1695
ENERGY: 20000 340.6999 905.6475 1007.1891 59.9516 -136414.8192 12257.3188 0.0000 1.0189 22644.9393 -99198.0541 295.5750 -121842.9934 -99140.0887 296.2443 -42.7390 -10.5556 374274.7170 1.3152 1.2433
ENERGY: 30000 326.3754 938.3448 990.6816 50.0734 -136214.6194 12176.7999 0.0000 0.3364 22928.1829 -98803.8249 299.2721 -121732.0078 -98741.8783 297.4838 -46.0867 -12.5510 373279.5493 5.8561 5.7718
ENERGY: 40000 324.7069 985.9514 1017.3323 58.9825 -136030.8177 12089.0203 0.0000 2.7731 22841.1220 -98710.9292 298.1357 -121552.0512 -98655.3922 298.3994 -34.6572 -6.4080 374167.2867 4.9251 5.0372
ENERGY: 50000 339.8353 963.3740 1000.4990 57.4063 -136140.6590 11997.6616 0.0000 1.0273 22806.5001 -98974.3554 297.6838 -121780.8554 -98910.1958 296.4963 -272.6388 -238.0711 374030.0791 -1.0058 -1.0828
