Info: SIMULATION PARAMETERS:
Info: TIMESTEP               2
Info: NUMBER OF STEPS        0
Info: STEPS PER CYCLE        10
Info: PERIODIC CELL BASIS 1  83.008 0 0
Info: PERIODIC CELL BASIS 2  0 63.4218 0
Info: PERIODIC CELL BASIS 3  0 0 70.8832
Info: PERIODIC CELL CENTER   -2 -0.4 -0.6
Info: WRAPPING ALL CLUSTERS AROUND PERIODIC BOUNDARIES ON OUTPUT.
Info: FIRST LDB TIMESTEP     50
Info: LAST LDB TIMESTEP     -1
Info: HOM BACKGROUND SCALING 1
Info: PME BACKGROUND SCALING 1
Info: MIN ATOMS PER PATCH    40
Info: INITIAL TEMPERATURE    298
Info: CENTER OF MASS MOVING INITIALLY? NO
Info: DIELECTRIC             1
Info: EXCLUDE                SCALED ONE-FOUR
Info: 1-4 ELECTROSTATICS SCALED BY 1
Info: MODIFIED 1-4 VDW PARAMETERS WILL BE USED
Info: DCD FILENAME           milestone_equilibration.dcd
Info: DCD FREQUENCY          1000
Info: DCD FIRST STEP         1000
Info: DCD FILE WILL CONTAIN UNIT CELL DATA
Info: XST FILENAME           milestone_equilibration.xst
Info: XST FREQUENCY          250
Info: NO VELOCITY DCD OUTPUT
Info: NO FORCE DCD OUTPUT
Info: OUTPUT FILENAME        milestone_equilibration
Info: BINARY OUTPUT FILES WILL BE USED
Info: RESTART FILENAME       milestone_equilibration.restart
Info: RESTART FREQUENCY      500
Info: BINARY RESTART FILES WILL BE USED
Info: SWITCHING ACTIVE
Info: SWITCHING ON           10
Info: SWITCHING OFF          12
Info: PAIRLIST DISTANCE      14
Info: PAIRLIST SHRINK RATE   0.01
Info: PAIRLIST GROW RATE     0.01
Info: PAIRLIST TRIGGER       0.3
Info: PAIRLISTS PER CYCLE    2
Info: PAIRLISTS ENABLED
Info: MARGIN                 0.495
Info: HYDROGEN GROUP CUTOFF  2.5
Info: PATCH DIMENSION        16.995
Info: ENERGY OUTPUT STEPS    1000
Info: CROSSTERM ENERGY INCLUDED IN DIHEDRAL
Info: TIMING OUTPUT STEPS    10000
Info: PRESSURE OUTPUT STEPS  1000
Info: COLLECTIVE VARIABLES CALCULATION REQUESTED
Info: COLLECTIVE VARIABLES CONFIGURATION   colvars.in
Info: LANGEVIN DYNAMICS ACTIVE
Info: LANGEVIN TEMPERATURE   298
Info: LANGEVIN USING BBK INTEGRATOR
Info: LANGEVIN DAMPING COEFFICIENT IS 1 INVERSE PS
Info: LANGEVIN DYNAMICS NOT APPLIED TO HYDROGENS
Info: LANGEVIN PISTON PRESSURE CONTROL ACTIVE
Info:        TARGET PRESSURE IS 1.01325 BAR
Info:     OSCILLATION PERIOD IS 100 FS
Info:             DECAY TIME IS 50 FS
Info:     PISTON TEMPERATURE IS 298 K
Info:       PRESSURE CONTROL IS GROUP-BASED
Info:    INITIAL STRAIN RATE IS -1.69062e-05 -1.69062e-05 -1.69062e-05
Info:       CELL FLUCTUATION IS ISOTROPIC
Info: PARTICLE MESH EWALD (PME) ACTIVE
Info: PME TOLERANCE               1e-06
Info: PME EWALD COEFFICIENT       0.257952
Info: PME INTERPOLATION ORDER     4
Info: PME GRID DIMENSIONS         84 64 72
Info: PME MAXIMUM GRID SPACING    1
Info: FULL ELECTROSTATIC EVALUATION FREQUENCY      2
Info: USING VERLET I (r-RESPA) MTS SCHEME.
Info: C1 SPLITTING OF LONG RANGE ELECTROSTATICS
Info: PLACING ATOMS IN PATCHES BY HYDROGEN GROUPS
Info: RIGID BONDS TO HYDROGEN : ALL
Info:         ERROR TOLERANCE : 1e-08
Info:          MAX ITERATIONS : 100
Info: RIGID WATER USING SETTLE ALGORITHM
Info: RANDOM NUMBER SEED     1590133137
Info: USE HYDROGEN BONDS?    NO
Info: COORDINATE PDB         FKBP_BUT_r=28A.pdb
Info: STRUCTURE FILE         ionized.psf
Info: PARAMETER file: CHARMM format!
Info: PARAMETERS             par_all36m_prot.prm
Info: PARAMETERS             par_all36_cgenff.prm
Info: PARAMETERS             par_all36_carb.prm
Info: PARAMETERS             par_all36_lipid.prm
Info: PARAMETERS             par_all36_na.prm
Info: PARAMETERS             buq.prm
Info: PARAMETERS             toppar_water_ions_namd.str
Info: USING ARITHMETIC MEAN TO COMBINE L-J SIGMA PARAMETERS
Info: SKIPPING rtf SECTION IN STREAM FILE
Info: SUMMARY OF PARAMETERS:
Info: 973 BONDS
Info: 2864 ANGLES
Info: 7012 DIHEDRAL
Info: 199 IMPROPER
Info: 6 CROSSTERM
Info: 357 VDW
Info: 78 VDW_PAIRS
Info: 0 NBTHOLE_PAIRS
Info: STRUCTURE SUMMARY:
Info: 38134 ATOMS
Info: 25999 BONDS
Info: 15223 ANGLES
Info: 4490 DIHEDRALS
Info: 287 IMPROPERS
Info: 105 CROSSTERMS
Info: 0 EXCLUSIONS
Info: 37295 RIGID BONDS
Info: 77107 DEGREES OF FREEDOM
Info: 12991 HYDROGEN GROUPS
Info: 4 ATOMS IN LARGEST HYDROGEN GROUP
Info: 12991 MIGRATION GROUPS
Info: 4 ATOMS IN LARGEST MIGRATION GROUP
Info: TOTAL MASS = 230867 amu
Info: TOTAL CHARGE = 1.36904e-06 e
Info: MASS DENSITY = 1.02735 g/cm^3
Info: ATOM DENSITY = 0.10219 atoms/A^3
Info: ADDED 45630 IMPLICIT EXCLUSIONS
Info: NONBONDED TABLE R-SQUARED SPACING: 0.0625
Info: NONBONDED TABLE SIZE: 769 POINTS
Info: REMOVING COM VELOCITY 0.00740186 -0.00929818 -0.00937918
Info: Updated CUDA force table with 4096 elements.
Info: Updated CUDA LJ table with 357 x 357 elements.
Info: Updated CUDA force table with 4096 elements.
Info: Updated CUDA LJ table with 357 x 357 elements.
Info: Found 267 unique exclusion lists needing 792 bytes
Info: Found 267 unique exclusion lists needing 792 bytes
TCL: Running for 50000 steps
ETITLE: TS BOND ANGLE DIHED IMPRP ELECT VDW BOUNDARY MISC KINETIC TOTAL TEMP POTENTIAL TOTAL3 TEMPAVG PRESSURE GPRESSURE VOLUME PRESSAVG GPRESSAVG
ENERGY: 0 344.4316 979.2130 987.6672 56.3956 -135940.2313 11801.1612 0.0000 1.0614 22793.5271 -98976.7743 297.5145 -121770.3014 -98917.9438 297.5145 -275.4456 -243.6967 373166.0015 -275.4456 -243.6967
ENERGY: 10000 317.6766 947.5619 1003.5339 57.3358 -136080.2905 12097.4800 0.0000 0.6246 22825.6765 -98830.4013 297.9341 -121656.0777 -98769.7871 297.5599 -211.2971 -175.1104 375439.8384 2.4015 2.4092
ENERGY: 20000 323.1309 984.5694 980.0614 59.1673 -136476.2139 12510.3120 0.0000 1.8680 22513.0787 -99104.0261 293.8539 -121617.1048 -99036.1005 296.5429 217.2266 246.5815 374257.6230 2.7845 2.7592
ENERGY: 30000 361.7601 924.8731 1005.3931 59.3273 -135943.7007 12182.5031 0.0000 2.2695 22826.9624 -98580.6122 297.9509 -121407.5745 -98519.2126 297.7294 38.5245 70.4829 373594.8769 6.3521 6.4445
ENERGY: 40000 332.3634 933.3150 992.8704 59.8599 -136290.4520 12182.7307 0.0000 1.7149 22687.5689 -99100.0289 296.1315 -121787.5979 -99040.3044 296.9061 -118.7485 -87.7421 373983.7000 3.8000 3.7620
ENERGY: 50000 326.1283 897.4272 977.5403 60.5503 -136691.8530 12408.6493 0.0000 0.9449 22794.9990 -99225.6138 297.5337 -122020.6128 -99162.5707 296.0608 -67.8794 -34.2392 374708.3847 2.6377 2.7328
